64
LiH
Li 0.34358716 1.460446 2.3002994
H 2.5164545 3.4214199 4.3880186
H 0.1277002 1.4942619 4.175145
Li 2.174269 3.5749903 2.119953
H 0.11969464 3.555525 2.1658244
Li 2.1724904 1.4377779 4.224747
H 2.2334065 1.3013642 2.3072946
Li 0.10148056 3.2572863 4.412324
Li 4.3967714 1.5228224 2.1515653
H 6.5146294 3.5355806 4.2814007
H 4.591784 1.3454337 4.118689
Li 6.5600595 3.7270348 2.2153115
H 4.35387 3.4284525 2.3044193
Li 6.4283404 1.5148884 3.981023
H 6.4506474 1.400378 2.1243796
Li 4.4349937 3.5031269 4.326261
Li 0.18020459 5.7148905 2.4330645
H 2.4053252 7.8562093 4.331763
H 0.346814 5.6288705 4.319567
Li 2.2962239 7.722508 2.0323126
H 0.12879089 7.669584 2.0684898
Li 2.296981 5.4401174 4.152913
H 2.3528225 5.6043253 2.322975
Li 0.18467778 7.7346334 4.4744425
Li 4.395813 5.663541 2.2376745
H 6.7066865 7.7027364 4.318101
H 4.633121 5.4327946 4.280952
Li 6.5307474 7.598637 2.0871696
H 4.2968273 7.7519507 2.2509167
Li 6.6789546 5.655436 4.2958117
H 6.552225 5.541833 2.58211
Li 4.403062 7.6122293 4.0649247
Li 0.08571218 1.3759096 6.3972063
H 2.4026008 3.403914 8.3954315
H 0.32433942 1.2434293 8.487505
Li 2.3132954 3.5845912 6.349228
H 0.28665218 3.2901304 6.3421774
Li 2.229747 1.2445093 8.333945
H 2.3988755 1.2623701 6.3072
Li 0.32277858 3.63451 8.439442
Li 4.502213 1.235432 6.2278113
H 6.5720124 3.490681 8.528417
H 4.448847 1.2864003 8.564995
Li 6.379408 3.479416 6.386947
H 4.6021805 3.398936 6.4328966
Li 6.567664 1.7032763 8.554414
H 6.499512 1.2162871 6.4668856
Li 4.4004908 3.5506427 8.3901
Li 0.1997859 5.758825 6.5267563
H 2.4132376 7.5977087 8.504745
H 0.43352756 5.48373 8.161297
Li 2.2018597 7.8416586 6.201117
H 0.2095429 7.60511 6.4300203
Li 2.4263275 5.5155272 8.454753
H 2.5242927 5.53206 6.413621
Li 0.120803386 7.5896826 8.465731
Li 4.3444424 5.877845 6.035627
H 6.4555554 7.4695005 8.543069
H 4.544478 5.5025716 8.617897
Li 6.441629 7.461065 6.510799
H 4.4119463 7.5380826 6.4031425
Li 6.497092 5.5827823 8.344422
H 6.556419 5.4956555 6.3465657
Li 4.336414 7.6729617 8.444017