64
LiH
Li -0.3606123 0.4775676 1.0426195
H 1.8524045 2.7504048 3.0282562
H -0.30393237 0.4304417 2.8666556
Li 1.7900227 2.5495937 0.6652247
H -0.5842177 2.4729521 0.8551788
Li 1.8293765 0.24512613 2.8037791
H 1.8986522 0.5789365 0.98312825
Li -0.4294523 2.4168136 2.8660421
Li 3.969772 0.51188874 0.81265986
H 5.937065 2.3661451 2.918238
H 4.0017385 0.6059069 2.7877004
Li 5.8796854 2.5528543 0.8380433
H 4.110524 2.6550095 0.79916424
Li 5.9035892 0.22026321 2.9656222
H 6.078948 0.14841397 0.5827328
Li 3.9702365 2.7263463 2.8766057
Li -0.17420074 4.4864945 0.98157126
H 1.9811283 6.561888 2.9021652
H -0.32167092 4.529588 3.1240256
Li 1.7262925 6.8395033 0.5662086
H -0.20964704 6.637227 1.0573745
Li 1.873513 4.561799 2.8133447
H 1.5787861 4.5636263 0.7634575
Li -0.44030428 6.409259 2.7955422
Li 3.9043267 4.747667 0.84173626
H 5.906742 6.680094 2.692933
H 3.7900083 4.6858835 2.743101
Li 6.086045 6.592093 0.6131229
H 3.7097297 6.769482 0.8557744
Li 5.685245 4.6885386 2.976429
H 5.897439 4.7860565 0.7669744
Li 4.0359426 6.5635743 2.7299483
Li -0.3859268 0.45434415 4.959468
H 1.6953397 2.5730245 7.187164
H -0.14966759 0.46064898 6.9837866
Li 1.8327932 2.5053117 5.03546
H -0.62974924 2.4938343 4.9602094
Li 1.8512291 0.52319527 6.949078
H 1.5324023 0.45870745 4.9408417
Li -0.37059745 2.5505002 6.90918
Li 3.9719846 0.41277722 4.966529
H 5.839533 2.379357 6.8999305
H 3.8288457 0.319261 6.8843555
Li 5.877339 2.6373475 5.0959277
H 3.799703 2.368941 5.052784
Li 6.0116515 0.55022484 7.189088
H 6.047823 0.35603842 4.9328756
Li 3.996906 2.5197828 7.1304812
Li -0.26538697 4.462333 5.0815625
H 1.6859411 6.664747 7.0494328
H -0.4122282 4.561818 7.0530806
Li 1.9054157 6.6171517 4.836841
H -0.34409633 6.5513783 5.016185
Li 1.7398882 4.541599 6.9616594
H 1.7649829 4.3589287 4.9027715
Li -0.14182715 7.0010123 6.814658
Li 3.7606752 4.7369027 5.135925
H 5.9674506 6.7622523 7.085421
H 3.73926 4.458015 7.029433
Li 6.0972943 6.639604 5.188793
H 3.8306983 6.639904 5.0289035
Li 6.0439553 4.5801797 7.18483
H 5.8288813 4.538384 5.012828
Li 4.012489 6.805217 7.0760007