8
XYZ
Na            0.000000000     0.000000000     0.000000000
Na            0.000000000     2.000000000     2.000000000
Na            2.000000000     0.000000000     2.000000000
Na            2.000000000     2.000000000     0.000000000
Cl            2.000000000     2.000000000     2.000000000
Cl            2.000000000     0.000000000     0.000000000
Cl            0.000000000     2.000000000     0.000000000
Cl            0.000000000     0.000000000     2.000000000
